Circuit: * C:\Users\phili\Documents\3rd year\Edesign_344\Draft1.asc

Direct Newton iteration for .op point succeeded.

Date: Thu Aug 13 10:37:57 2020
Total elapsed time: 0.100 seconds.

tnom = 27
temp = 27
method = modified trap
totiter = 2095
traniter = 2092
tranpoints = 1047
accept = 1047
rejected = 0
matrix size = 2
fillins = 0
solver = Normal
Matrix Compiler1: off  [0.1]/0.1/0.1
Matrix Compiler2: 96 bytes object code size  0.1/0.1/[0.1]

