Circuit: * C:\Users\phili\Documents\3rd year\Edesign_344\E344_21739064.asc

Early termination of direct N-R iteration.
Direct Newton iteration failed to find .op point.  (Use ".option noopiter" to skip.)
Starting Gmin stepping
Gmin = 10
Gmin = 1.07374
Gmin = 0.115292
vernier = 0.5
Gmin = 0.02388
vernier = 0.666667
vernier = 0.888888
Gmin = 0.00544185
vernier = 1
vernier = 0.5
Gmin = 0.00102156
vernier = 0.25
vernier = 0.125
vernier = 0.0625
vernier = 0.03125
Gmin = 0.00099805
vernier = 0.015625
vernier = 0.0078125
vernier = 0.00390625
vernier = 0.00195313
Gmin = 0.00100047
vernier = 0.000976563
vernier = 0.000488281
Gmin = 0
Gmin stepping failed

Starting source stepping with srcstepmethod=0
Source Step = 3.0303%
vernier = 0.25
Source Step = 7.57576%
Source Step = 15.1515%
Source Step = 22.7273%
Source Step = 30.303%
Source Step = 30.3208%
Starting source stepping with srcstepmethod=1
Source Step = 3.0303%
vernier = 0.25
Source Step = 1.79924%
Source stepping failed

Pseudo transient terminated at 101.346 s, solution accepted ready or not!
Changing Tseed to 1e-007

Date: Fri Aug 14 12:32:28 2020
Total elapsed time: 9.207 seconds.

tnom = 27
temp = 27
method = modified trap
totiter = 29277
traniter = 10109
tranpoints = 5039
accept = 5038
rejected = 229
matrix size = 192
fillins = 551
solver = Normal
Thread vector: 60.9/27.2[4] 15.2/11.1[4] 26.6/10.8[4] 3.9/8.2[1]  2592/500
Matrix Compiler1: 51.43 KB object code size  27.3/13.7/[7.9]
Matrix Compiler2: 25.53 KB object code size  14.8/13.0/[5.6]

