Circuit: * LM78XX Positive voltage regulators. See R20 below in 3 places. -rs

Fatal Error: No analysis request found.
