Circuit: * C:\Users\phili\Documents\3rd year\Edesign 344\opampteststaion.asc

Direct Newton iteration for .op point succeeded.

Date: Mon Aug 03 11:27:44 2020
Total elapsed time: 0.058 seconds.

tnom = 27
temp = 27
method = modified trap
totiter = 899
traniter = 881
tranpoints = 401
accept = 261
rejected = 140
matrix size = 29
fillins = 32
solver = Normal
Matrix Compiler1: 2.73 KB object code size  0.5/0.2/[0.2]
Matrix Compiler2: 2.81 KB object code size  0.2/0.3/[0.2]

