Circuit: * C:\Users\phili\Documents\3rd year\Edesign_344\voltage_regulation.asc

Questionable use of curly braces in "b§e_abmgate yint 0 v={if(v(a)>{{vthresh}}&v(b)>{{vthresh}},{{vdd}},{{vss}})}"
    Error: undefined symbol in: "if([v](a)>((vthresh))&v(b)>((vthresh)),((vdd)),((vss)))"
Questionable use of curly braces in "b§e_abmgate yint 0 v={if(v(a)>{{vthresh}}|v(b)>{{vthresh}}|v(c)>{{vthresh}},{{vdd}},{{vss}})}"
    Error: undefined symbol in: "if([v](a)>((vthresh))|v(b)>((vthresh))|v(c)>((vthresh)),((vdd)),((vss)))"
Questionable use of curly braces in "b§e_abmgate yint 0 v={if(v(a)>{{vthresh}},{{vdd}},{{vss}})}"
    Error: undefined symbol in: "if([v](a)>((vthresh)),((vdd)),((vss)))"
Warning: Multiple definitions of model "mur460" Type: Diode
Direct Newton iteration failed to find .op point.  (Use ".option noopiter" to skip.)
Starting Gmin stepping
Gmin = 10
Gmin = 1.07374
Gmin = 0.115292
Gmin = 0.0123794
Gmin = 0.00132923
Gmin = 0.000142725
Gmin = 1.5325e-005
Gmin = 1.6455e-006
Gmin = 1.76685e-007
Gmin = 1.89714e-008
Gmin = 2.03704e-009
Gmin = 2.18725e-010
Gmin = 2.34854e-011
Gmin = 2.52173e-012
Gmin = 2.70769e-013
Gmin = 0
Gmin stepping succeeded in finding the operating point.

Ignoring empty pin current: Ix(u2:fb)
Ignoring empty pin current: Ix(u2:fb)

Date: Fri Aug 14 13:53:02 2020
Total elapsed time: 11.079 seconds.

tnom = 27
temp = 27
method = modified trap
totiter = 199017
traniter = 198476
tranpoints = 61843
accept = 50998
rejected = 10845
matrix size = 130
fillins = 84
solver = Normal
Thread vector: 38.8/30.5[2] 11.2/9.6[2] 13.2/9.2[2] 1.2/4.4[1]  2592/500
Matrix Compiler1: 10.14 KB object code size  5.9/3.1/[1.6]
Matrix Compiler2: 10.71 KB object code size  3.9/6.2/[1.9]

